<?xml version="1.0" encoding="iso-8859-1"?>


<configuration xmlns:xsi="http://www.w3.org/2001/XMLSchema-instance" xsi:noNamespaceSchemaLocation="http://sumo.sf.net/xsd/sumoConfiguration.xsd">

  
  <input>
    
    <net-file value="millan.net.xml"/>
      
  <route-files value="millan.rou.xml"/>
       
 <additional-files value="millan.poi.xml"/>
  
  </input>

   
 <time>
      
  <begin value="0"/>
       
 <end value="10000"/>
    
   <step-length value="0.1"/>
   
 </time>

  
  <report>
   
     <no-step-log value="true"/>
   
 </report>

  
  <gui_only>
      
  <start value="true"/>

    </gui_only>


</configuration>
