<?xml version="1.0" encoding="UTF-8"?>

<!-- generated on 12/08/18 11:05:46 by SUMO netconvert Version 0.32.0
<?xml version="1.0" encoding="UTF-8"?>

<configuration xmlns:xsi="http://www.w3.org/2001/XMLSchema-instance" xsi:noNamespaceSchemaLocation="http://sumo.dlr.de/xsd/netconvertConfiguration.xsd">

    <input>
        <sumo-net-file value="hm4.net.xml"/>
    </input>

    <output>
        <plain-output-prefix value="hm4"/>
    </output>

    <processing>
        <no-turnarounds value="true"/>
        <offset.disable-normalization value="true"/>
        <lefthand value="false"/>
        <junctions.corner-detail value="0"/>
        <rectangular-lane-cut value="false"/>
        <walkingareas value="false"/>
    </processing>

</configuration>
-->

<nodes version="0.27" xmlns:xsi="http://www.w3.org/2001/XMLSchema-instance" xsi:noNamespaceSchemaLocation="http://sumo.dlr.de/xsd/nodes_file.xsd">
    <location netOffset="-702368.59,-5175326.27" convBoundary="0.00,0.00,198.42,701.81" origBoundary="11.647166,46.700861,11.650057,46.707140" projParameter="+proj=utm +zone=32 +ellps=WGS84 +datum=WGS84 +units=m +no_defs"/>

    <node id="1000358535" x="103.80" y="373.00" type="priority"/>
    <node id="1000358664" x="135.46" y="589.27" type="priority"/>
    <node id="1000358667" x="142.60" y="598.60" type="priority"/>
    <node id="1000358690" x="122.91" y="524.47" type="priority"/>
    <node id="1000358710" x="130.21" y="621.30" type="priority"/>
    <node id="1000358752" x="198.42" y="678.18" type="dead_end"/>
    <node id="1260093141" x="71.82" y="196.07" type="priority"/>
    <node id="1619050654" x="104.67" y="203.00" type="priority"/>
    <node id="1619050657" x="79.45" y="219.38" type="priority"/>
    <node id="1619050680" x="86.73" y="249.57" type="priority"/>
    <node id="2189991263" x="101.47" y="701.81" type="priority"/>
    <node id="2399517203" x="86.38" y="186.63" type="priority"/>
    <node id="2435699786" x="106.67" y="388.82" type="priority"/>
    <node id="2435699804" x="115.95" y="440.10" type="priority"/>
    <node id="293244088" x="66.95" y="161.41" type="priority"/>
    <node id="3234151961" x="181.46" y="660.41" type="priority"/>
    <node id="3234151962" x="104.44" y="425.73" type="priority"/>
    <node id="3265703580" x="95.64" y="310.46" type="priority"/>
    <node id="486369831" x="136.05" y="550.03" type="priority"/>
    <node id="514866313" x="96.80" y="218.45" type="priority"/>
    <node id="514866338" x="0.00" y="0.00" type="priority"/>
    <node id="5725690506" x="88.25" y="221.23" type="priority"/>
    <node id="613406001" x="186.76" y="653.92" type="dead_end"/>
    <node id="663674848" x="7.49" y="17.74" type="priority"/>
</nodes>
